Version 4
SHEET 1 1848 680
WIRE 624 -352 384 -352
WIRE 752 -352 704 -352
WIRE 896 -352 832 -352
WIRE 976 -352 896 -352
WIRE 1152 -352 1040 -352
WIRE 1200 -352 1152 -352
WIRE 1248 -352 1200 -352
WIRE 384 -272 384 -352
WIRE 1248 -272 1248 -352
WIRE 1152 -256 1152 -352
WIRE 384 -128 384 -192
WIRE 1152 -96 1152 -192
WIRE 1200 -96 1152 -96
WIRE 1248 -96 1248 -192
WIRE 1248 -96 1200 -96
WIRE 1200 -80 1200 -96
WIRE 528 -32 160 -32
WIRE 160 0 160 -32
WIRE 528 16 528 -32
WIRE 528 96 528 16
WIRE 896 96 896 -352
WIRE 160 112 160 80
WIRE 528 128 528 96
WIRE 448 144 304 144
WIRE 464 144 448 144
WIRE 608 176 592 176
WIRE 624 176 608 176
WIRE 640 176 624 176
WIRE 784 176 720 176
WIRE 848 176 784 176
WIRE -64 208 -128 208
WIRE 32 208 -64 208
WIRE 256 208 160 208
WIRE 304 208 304 144
WIRE 304 208 256 208
WIRE 448 208 400 208
WIRE 464 208 448 208
WIRE -128 240 -128 208
WIRE 528 256 528 224
WIRE 400 288 400 208
WIRE 448 288 400 288
WIRE 528 288 528 256
WIRE 528 288 448 288
WIRE 448 304 448 288
WIRE 896 304 896 192
WIRE -128 368 -128 320
FLAG -128 368 0
FLAG 160 112 0
FLAG 896 304 0
FLAG 1200 -80 0
FLAG 384 -128 0
FLAG 448 304 0
FLAG 1200 -352 Vout
FLAG 896 -352 Vsw
FLAG 784 176 Vgate
FLAG -64 208 vc
FLAG 256 208 c
FLAG 528 16 vdd
FLAG 624 176 g
SYMBOL voltage -128 224 R0
SYMATTR InstName Vduty
SYMATTR Value 0.4
SYMBOL voltage 160 -16 R0
SYMATTR InstName V_driver_supply
SYMATTR Value 12
SYMBOL res 736 160 R90
WINDOW 0 0 56 VBottom 2
WINDOW 3 32 56 VTop 2
SYMATTR InstName Rg
SYMATTR Value 10
SYMBOL diode 976 -336 R270
WINDOW 0 32 32 VTop 2
WINDOW 3 0 32 VBottom 2
SYMATTR InstName D1
SYMATTR Value RF1601NS2D
SYMBOL nmos 848 96 R0
SYMATTR InstName M1
SYMATTR Value IRFS4010
SYMBOL cap 1136 -256 R0
SYMATTR InstName C1
SYMATTR Value 33µF ic=20
SYMBOL res 1232 -288 R0
SYMATTR InstName Rload
SYMATTR Value 20ohm
SYMBOL ind 608 -336 R270
WINDOW 0 32 56 VTop 2
WINDOW 3 5 56 VBottom 2
SYMATTR InstName L1
SYMATTR Value 100µH
SYMBOL res 848 -368 R90
WINDOW 0 0 56 VBottom 2
WINDOW 3 32 56 VTop 2
SYMATTR InstName RL
SYMATTR Value 100mohm
SYMBOL voltage 384 -288 R0
SYMATTR InstName Vg
SYMATTR Value 24
SYMBOL PWM 96 208 R0
SYMATTR InstName U2
SYMATTR SpiceLine2 Dmin=0, Dmax=0.9, Voffset=0
SYMBOL Driver 512 176 R0
SYMATTR InstName U1
TEXT 1072 72 Left 2 !.tran 0 5msec 10n 20e-9 uic
TEXT 536 -240 Left 2 ;Boost converter power stage
TEXT 520 304 Left 2 ;Transistor gate drive circuit
TEXT 0 320 Left 2 ;Pulse-width modulator
TEXT 1056 32 Left 2 ;Simulation directives
TEXT 64 -136 Left 2 !.lib switching.lib
TEXT 1072 104 Left 2 !.options reltol=0.0005
