Version 4
SHEET 1 980 680
WIRE 384 -80 208 -80
WIRE -176 -32 -320 -32
WIRE -1280 -16 -1472 -16
WIRE -1056 -16 -1280 -16
WIRE 208 0 208 -80
WIRE -384 16 -512 16
WIRE 656 32 544 32
WIRE -1280 64 -1280 -16
WIRE -1472 80 -1472 -16
WIRE -1280 80 -1296 80
WIRE -1120 80 -1232 80
WIRE -320 80 -320 32
WIRE -176 80 -176 48
WIRE 208 80 208 64
WIRE 384 80 384 0
WIRE 128 96 64 96
WIRE 544 112 544 96
WIRE -384 128 -384 16
WIRE -2336 160 -2496 160
WIRE -1056 160 -1056 -16
WIRE -1056 160 -1120 160
WIRE 128 160 128 96
WIRE 160 160 128 160
WIRE 176 160 160 160
WIRE 544 160 544 112
WIRE 656 160 544 160
WIRE -2336 176 -2336 160
WIRE -2560 192 -2752 192
WIRE -2336 192 -2336 176
WIRE -2560 208 -2560 192
WIRE -512 256 -512 176
WIRE -320 256 -320 176
WIRE -320 256 -512 256
WIRE -176 256 -176 160
WIRE -176 256 -320 256
WIRE 64 256 64 176
WIRE 208 256 208 176
WIRE 208 256 64 256
WIRE 384 256 384 160
WIRE 384 256 208 256
WIRE -320 288 -320 256
WIRE -1472 304 -1472 160
WIRE -1280 304 -1280 288
WIRE -1280 304 -1472 304
WIRE 208 320 208 256
WIRE -2752 336 -2752 272
WIRE -2496 336 -2496 256
WIRE -2496 336 -2752 336
WIRE -2336 336 -2496 336
WIRE -1280 368 -1280 304
FLAG 208 320 0
FLAG -320 288 0
FLAG -1280 368 0
FLAG -2496 336 0
SYMBOL nmos 160 80 R0
SYMATTR InstName M1
SYMATTR Value AO6408
SYMBOL LED 192 0 R0
SYMATTR InstName D1
SYMATTR Value LXK2-PW14
SYMBOL res 368 -96 R0
WINDOW 3 40 71 Left 2
SYMATTR Value 18
SYMATTR InstName R1
SYMATTR SpiceLine tol=1 pwr=0.1
SYMBOL voltage 64 80 R0
WINDOW 123 24 44 Left 2
WINDOW 39 24 72 Left 2
WINDOW 3 24 44 Left 2
SYMATTR SpiceLine Rser=0.4
SYMATTR Value PULSE(0 0 0 0 0 1 2)
SYMATTR InstName V1
SYMBOL voltage 384 64 R0
WINDOW 123 0 0 Left 0
WINDOW 39 24 124 Left 2
SYMATTR SpiceLine Rser=4
SYMATTR InstName V2
SYMATTR Value 20
SYMBOL voltage 544 16 R0
WINDOW 123 0 0 Left 0
WINDOW 39 0 0 Left 0
SYMATTR InstName V3
SYMATTR Value 5
SYMBOL LED 640 32 R0
SYMATTR InstName D2
SYMATTR Value NSCW100
SYMBOL res 640 64 R0
SYMATTR InstName R2
SYMATTR Value 10
SYMBOL npn -384 80 R0
SYMATTR InstName Q1
SYMATTR Value FZT849
SYMBOL voltage -176 64 R0
WINDOW 123 0 0 Left 0
WINDOW 39 24 124 Left 2
SYMATTR SpiceLine Rser=4
SYMATTR InstName V4
SYMATTR Value 30
SYMBOL LED -336 -32 R0
SYMATTR InstName D3
SYMATTR Value LXK2-PW14
SYMBOL res -192 -48 R0
SYMATTR InstName R3
SYMATTR Value 15
SYMATTR SpiceLine tol=1 pwr=0.1
SYMBOL res -528 0 R0
SYMATTR InstName R4
SYMATTR Value 10
SYMATTR SpiceLine tol=1 pwr=0.1
SYMBOL current -512 176 R180
WINDOW 3 24 28 Left 2
WINDOW 123 0 0 Left 0
WINDOW 39 0 0 Left 0
SYMATTR Value PULSE(0.5 0 0 0 0 1 2 10)
SYMATTR InstName I1
SYMBOL LED -1296 240 R0
SYMATTR InstName D4
SYMATTR Value LXK2-PW14
SYMBOL voltage -1120 176 R180
WINDOW 3 -285 -4 Left 2
WINDOW 123 0 0 Left 0
WINDOW 39 0 0 Left 0
SYMATTR Value PULSE(0 20 0 0 0 1 2 10)
SYMATTR InstName V5
SYMBOL voltage -1472 64 R0
WINDOW 123 0 0 Left 0
WINDOW 39 0 0 Left 0
WINDOW 3 24 44 Left 2
SYMATTR Value 20
SYMATTR InstName V6
SYMBOL npn -2560 160 R0
SYMATTR InstName Q2
SYMATTR Value FZT849
SYMBOL voltage -2752 176 R0
WINDOW 123 0 0 Left 0
WINDOW 39 0 0 Left 0
SYMATTR InstName V9
SYMATTR Value 5
SYMBOL res -2352 240 R0
SYMATTR InstName R7
SYMATTR Value 15
SYMATTR SpiceLine tol=1 pwr=0.1
SYMBOL voltage -2336 160 R0
WINDOW 123 0 0 Left 0
WINDOW 39 0 0 Left 0
SYMATTR InstName V8
SYMATTR Value PULSE(0 15 0 0 0 1 2 10)
SYMBOL pmos -1232 160 R180
SYMATTR InstName M2
SYMATTR Value FDS4559_P
SYMBOL res -1296 144 R0
SYMATTR InstName R6
SYMATTR Value 200
TEXT 32 344 Left 2 !.tran 20
